data/open_dss/uhs10_1247/uhs10_1247--udt11713/Loads_scenario_40.dss
New Load.load_p1ulv3539 conn=wye bus1=p1ulv3539.1.2 kV=0.2080002494301389 Vminpu=0.8 Vmaxpu=1.2 model=1 kW=2.8000300000000005 kvar=0.5700337678771953 Phases=2

New Load.load_p1ulv3540 conn=wye bus1=p1ulv3540.1.2 kV=0.2080002494301389 Vminpu=0.8 Vmaxpu=1.2 model=1 kW=10.61 kvar=0.6298893844622836 Phases=2

New Load.load_p1ulv3541 conn=wye bus1=p1ulv3541.1.2 kV=0.2080002494301389 Vminpu=0.8 Vmaxpu=1.2 model=1 kW=12.43 kvar=1.0010893498586726 Phases=2

New Load.load_p1ulv3542 conn=wye bus1=p1ulv3542.1.2 kV=0.2080002494301389 Vminpu=0.8 Vmaxpu=1.2 model=1 kW=3.76004 kvar=0.7595649045608481 Phases=2

New Load.load_p1ulv3543 conn=wye bus1=p1ulv3543.1.2 kV=0.2080002494301389 Vminpu=0.8 Vmaxpu=1.2 model=1 kW=3.22003 kvar=0.6504775958854341 Phases=2

New Load.load_p1ulv3544 conn=wye bus1=p1ulv3544.1.2 kV=0.2080002494301389 Vminpu=0.8 Vmaxpu=1.2 model=1 kW=3.74004 kvar=0.7594475131176014 Phases=2

New Load.load_p1ulv3545 conn=wye bus1=p1ulv3545.1.2 kV=0.2080002494301389 Vminpu=0.8 Vmaxpu=1.2 model=1 kW=12.08 kvar=0.9300188186367714 Phases=2

New Load.load_p1ulv3546 conn=wye bus1=p1ulv3546.1.2 kV=0.2080002494301389 Vminpu=0.8 Vmaxpu=1.2 model=1 kW=3.20003 kvar=0.6497938057886328 Phases=2

New Load.load_p1ulv3547 conn=wye bus1=p1ulv3547.1.2 kV=0.2080002494301389 Vminpu=0.8 Vmaxpu=1.2 model=1 kW=3.43003 kvar=0.70007864149034 Phases=2

New Load.load_p1ulv3548 conn=wye bus1=p1ulv3548.1.2 kV=0.2080002494301389 Vminpu=0.8 Vmaxpu=1.2 model=1 kW=10.56 kvar=0.6197626431693976 Phases=2

New Load.load_p1ulv3549 conn=wye bus1=p1ulv3549.1.2 kV=0.2080002494301389 Vminpu=0.8 Vmaxpu=1.2 model=1 kW=18.43 kvar=0.70007864149034 Phases=2

New Load.load_p1ulv3550 conn=wye bus1=p1ulv3550.1.2.3 kV=0.48 Vminpu=0.8 Vmaxpu=1.2 model=1 kW=34.7603 kvar=11.425158101248838 Phases=3

New Load.load_p1ulv3551 conn=wye bus1=p1ulv3551.1.2 kV=0.2080002494301389 Vminpu=0.8 Vmaxpu=1.2 model=1 kW=4.14004 kvar=1.3592956687066866 Phases=2

New Load.load_p1ulv3552 conn=wye bus1=p1ulv3552.1.2 kV=0.2080002494301389 Vminpu=0.8 Vmaxpu=1.2 model=1 kW=3.7300400000000002 kvar=0.7593664194785962 Phases=2

New Load.load_p1ulv5958 conn=wye bus1=p1ulv5958.1.2 kV=0.2080002494301389 Vminpu=0.8 Vmaxpu=1.2 model=1 kW=11.62 kvar=0.8409115972996914 Phases=2

New Load.load_p1ulv5967 conn=wye bus1=p1ulv5967.1.2 kV=0.2080002494301389 Vminpu=0.8 Vmaxpu=1.2 model=1 kW=4.23004 kvar=0.8589462568282636 Phases=2

New Load.load_p1ulv6824 conn=wye bus1=p1ulv6824.1.2 kV=0.2080002494301389 Vminpu=0.8 Vmaxpu=1.2 model=1 kW=4.14004 kvar=1.3592956687066866 Phases=2

New Load.load_p1ulv6825 conn=wye bus1=p1ulv6825.1.2 kV=0.2080002494301389 Vminpu=0.8 Vmaxpu=1.2 model=1 kW=10.3501 kvar=2.101677443428007 Phases=2

New Load.load_p1ulv6826 conn=wye bus1=p1ulv6826.1.2 kV=0.2080002494301389 Vminpu=0.8 Vmaxpu=1.2 model=1 kW=11.61 kvar=0.8302683323425464 Phases=2

New Load.load_p1ulv6827 conn=wye bus1=p1ulv6827.1.2 kV=0.2080002494301389 Vminpu=0.8 Vmaxpu=1.2 model=1 kW=10.81 kvar=0.6703963496338274 Phases=2

New Load.load_p1ulv6828 conn=wye bus1=p1ulv6828.1.2 kV=0.2080002494301389 Vminpu=0.8 Vmaxpu=1.2 model=1 kW=14.4401 kvar=2.932187365421085 Phases=2

New Load.load_p1ulv6829 conn=wye bus1=p1ulv6829.1.2 kV=0.2080002494301389 Vminpu=0.8 Vmaxpu=1.2 model=1 kW=14.3801 kvar=2.9200038457830453 Phases=2

New Load.load_p1ulv6830 conn=wye bus1=p1ulv6830.1.2.3 kV=0.48 Vminpu=0.8 Vmaxpu=1.2 model=1 kW=32.5803 kvar=6.615712081054051 Phases=3

New Load.load_p1ulv6831 conn=wye bus1=p1ulv6831.1.2.3 kV=0.48 Vminpu=0.8 Vmaxpu=1.2 model=1 kW=38.93039999999999 kvar=7.90515488194604 Phases=3

New Load.load_p1ulv6832 conn=wye bus1=p1ulv6832.1.2 kV=0.2080002494301389 Vminpu=0.8 Vmaxpu=1.2 model=1 kW=6.69007 kvar=1.358476653747733 Phases=2

New Load.load_p1ulv6833 conn=wye bus1=p1ulv6833.1.2 kV=0.2080002494301389 Vminpu=0.8 Vmaxpu=1.2 model=1 kW=10.97 kvar=0.7100482018344989 Phases=2

New Load.load_p1ulv6834 conn=wye bus1=p1ulv6834.1.2.3 kV=0.48 Vminpu=0.8 Vmaxpu=1.2 model=1 kW=67.1907 kvar=13.643653549061193 Phases=3

New Load.load_p1ulv6835 conn=wye bus1=p1ulv6835.1.2.3 kV=0.48 Vminpu=0.8 Vmaxpu=1.2 model=1 kW=142.471 kvar=28.929970439187226 Phases=3

New Load.load_p1ulv8262 conn=wye bus1=p1ulv8262.1.2 kV=0.2080002494301389 Vminpu=0.8 Vmaxpu=1.2 model=1 kW=10.56 kvar=0.6197626431693976 Phases=2

New Load.load_p1ulv8263 conn=wye bus1=p1ulv8263.1.2 kV=0.2080002494301389 Vminpu=0.8 Vmaxpu=1.2 model=1 kW=10.62 kvar=0.6302766165192346 Phases=2

New Load.load_p1ulv8264 conn=wye bus1=p1ulv8264.1.2 kV=0.2080002494301389 Vminpu=0.8 Vmaxpu=1.2 model=1 kW=10.4 kvar=0.5903918986071232 Phases=2

New Load.load_p1ulv8265 conn=wye bus1=p1ulv8265.1.2 kV=0.2080002494301389 Vminpu=0.8 Vmaxpu=1.2 model=1 kW=2.8200300000000005 kvar=0.5696736784206362 Phases=2

New Load.load_p1ulv8266 conn=wye bus1=p1ulv8266.1.2 kV=0.2080002494301389 Vminpu=0.8 Vmaxpu=1.2 model=1 kW=3.56004 kvar=0.7191629458284491 Phases=2

New Load.load_p1ulv8268 conn=wye bus1=p1ulv8268.1.2 kV=0.2080002494301389 Vminpu=0.8 Vmaxpu=1.2 model=1 kW=3.17003 kvar=0.6403771062023346 Phases=2

New Load.load_p1ulv8269 conn=wye bus1=p1ulv8269.1.2 kV=0.2080002494301389 Vminpu=0.8 Vmaxpu=1.2 model=1 kW=2.41002 kvar=0.489375433301163 Phases=2

New Load.load_p1ulv8272 conn=wye bus1=p1ulv8272.1.2 kV=0.2080002494301389 Vminpu=0.8 Vmaxpu=1.2 model=1 kW=10.86 kvar=0.6805230909267135 Phases=2

New Load.load_p1ulv8273 conn=wye bus1=p1ulv8273.1.2 kV=0.2080002494301389 Vminpu=0.8 Vmaxpu=1.2 model=1 kW=11.44 kvar=0.8000592452444024 Phases=2

New Load.load_p1ulv8275 conn=wye bus1=p1ulv8275.1.2 kV=0.2080002494301389 Vminpu=0.8 Vmaxpu=1.2 model=1 kW=2.7800300000000004 kvar=0.5601303263507202 Phases=2

New Load.load_p1ulv8276 conn=wye bus1=p1ulv8276.1.2 kV=0.2080002494301389 Vminpu=0.8 Vmaxpu=1.2 model=1 kW=3.49003 kvar=0.7105048699136965 Phases=2

New Load.load_p1ulv8277 conn=wye bus1=p1ulv8277.1.2 kV=0.2080002494301389 Vminpu=0.8 Vmaxpu=1.2 model=1 kW=3.18003 kvar=0.6507075106785133 Phases=2

New Load.load_p1ulv8278 conn=wye bus1=p1ulv8278.1.2 kV=0.2080002494301389 Vminpu=0.8 Vmaxpu=1.2 model=1 kW=3.97004 kvar=0.8102961810428216 Phases=2

New Load.load_p1ulv8279 conn=wye bus1=p1ulv8279.1.2 kV=0.2080002494301389 Vminpu=0.8 Vmaxpu=1.2 model=1 kW=10.39 kvar=0.5898631429656088 Phases=2

New Load.load_p1ulv8280 conn=wye bus1=p1ulv8280.1.2 kV=0.2080002494301389 Vminpu=0.8 Vmaxpu=1.2 model=1 kW=10.24 kvar=0.5606733585797765 Phases=2

New Load.load_p1ulv8281 conn=wye bus1=p1ulv8281.1.2 kV=0.2080002494301389 Vminpu=0.8 Vmaxpu=1.2 model=1 kW=10.67 kvar=0.6403771062023346 Phases=2

New Load.load_p1ulv8283 conn=wye bus1=p1ulv8283.1.2 kV=0.2080002494301389 Vminpu=0.8 Vmaxpu=1.2 model=1 kW=10.26 kvar=0.5604479951096709 Phases=2

New Load.load_p1ulv8284 conn=wye bus1=p1ulv8284.1.2 kV=0.2080002494301389 Vminpu=0.8 Vmaxpu=1.2 model=1 kW=2.75003 kvar=0.5598547025122315 Phases=2

New Load.load_p1ulv8286 conn=wye bus1=p1ulv8286.1.2 kV=0.2080002494301389 Vminpu=0.8 Vmaxpu=1.2 model=1 kW=3.52004 kvar=0.7092301716051945 Phases=2

New Load.load_p1ulv8287 conn=wye bus1=p1ulv8287.1.2 kV=0.2080002494301389 Vminpu=0.8 Vmaxpu=1.2 model=1 kW=10.72 kvar=0.6504775958854341 Phases=2

New Load.load_p1ulv8288 conn=wye bus1=p1ulv8288.1.2 kV=0.2080002494301389 Vminpu=0.8 Vmaxpu=1.2 model=1 kW=3.2600300000000004 kvar=0.6602696083409414 Phases=2

New Load.load_p1ulv8289 conn=wye bus1=p1ulv8289.1.2 kV=0.2080002494301389 Vminpu=0.8 Vmaxpu=1.2 model=1 kW=9.57 kvar=0.4203354886856016 Phases=2

New Load.load_p1ulv8291 conn=wye bus1=p1ulv8291.1.2 kV=0.2080002494301389 Vminpu=0.8 Vmaxpu=1.2 model=1 kW=2.49002 kvar=0.5095155441111284 Phases=2

New Load.load_p1ulv8293 conn=wye bus1=p1ulv8293.1.2 kV=0.2080002494301389 Vminpu=0.8 Vmaxpu=1.2 model=1 kW=10.24 kvar=0.5606733585797765 Phases=2

New Load.load_p1ulv8294 conn=wye bus1=p1ulv8294.1.2 kV=0.2080002494301389 Vminpu=0.8 Vmaxpu=1.2 model=1 kW=3.04003 kvar=0.6204785592224786 Phases=2

New Load.load_p1ulv8295 conn=wye bus1=p1ulv8295.1.2 kV=0.2080002494301389 Vminpu=0.8 Vmaxpu=1.2 model=1 kW=15.140200000000002 kvar=3.066417770451045 Phases=2

New Load.load_p1ulv8296 conn=wye bus1=p1ulv8296.1.2 kV=0.2080002494301389 Vminpu=0.8 Vmaxpu=1.2 model=1 kW=10.28 kvar=0.5601303263507202 Phases=2

New Load.load_p1ulv8297 conn=wye bus1=p1ulv8297.1.2 kV=0.2080002494301389 Vminpu=0.8 Vmaxpu=1.2 model=1 kW=2.8200300000000005 kvar=0.5696736784206362 Phases=2

New Load.load_p1ulv8298 conn=wye bus1=p1ulv8298.1.2 kV=0.2080002494301389 Vminpu=0.8 Vmaxpu=1.2 model=1 kW=11.29 kvar=0.7696004461493017 Phases=2

New Load.load_p1ulv8299 conn=wye bus1=p1ulv8299.1.2 kV=0.2080002494301389 Vminpu=0.8 Vmaxpu=1.2 model=1 kW=2.50002 kvar=0.510261019669997 Phases=2

New Load.load_p1ulv8300 conn=wye bus1=p1ulv8300.1.2 kV=0.2080002494301389 Vminpu=0.8 Vmaxpu=1.2 model=1 kW=2.93003 kvar=0.5995517424405946 Phases=2

New Load.load_p1ulv8301 conn=wye bus1=p1ulv8301.1.2 kV=0.2080002494301389 Vminpu=0.8 Vmaxpu=1.2 model=1 kW=2.77003 kvar=0.5595731887375364 Phases=2

New Load.load_p1ulv8302 conn=wye bus1=p1ulv8302.1.2 kV=0.2080002494301389 Vminpu=0.8 Vmaxpu=1.2 model=1 kW=10.35 kvar=0.5802128332421591 Phases=2

New Load.load_p1ulv8303 conn=wye bus1=p1ulv8303.1.2 kV=0.2080002494301389 Vminpu=0.8 Vmaxpu=1.2 model=1 kW=1.38001 kvar=0.28022298226153225 Phases=2

New Load.load_p1ulv8304 conn=wye bus1=p1ulv8304.1.2 kV=0.2080002494301389 Vminpu=0.8 Vmaxpu=1.2 model=1 kW=13.8401 kvar=1.2907177031558559 Phases=2

New Load.load_p1ulv8305 conn=wye bus1=p1ulv8305.1.2 kV=0.2080002494301389 Vminpu=0.8 Vmaxpu=1.2 model=1 kW=2.5300300000000004 kvar=0.5097594376956769 Phases=2

New Load.load_p1ulv8306 conn=wye bus1=p1ulv8306.1.2 kV=0.2080002494301389 Vminpu=0.8 Vmaxpu=1.2 model=1 kW=11.04 kvar=0.7206859710917335 Phases=2

New Load.load_p1ulv8307 conn=wye bus1=p1ulv8307.1.2 kV=0.2080002494301389 Vminpu=0.8 Vmaxpu=1.2 model=1 kW=11.11 kvar=0.7292634355115489 Phases=2

New Load.load_p1ulv8308 conn=wye bus1=p1ulv8308.1.2 kV=0.2080002494301389 Vminpu=0.8 Vmaxpu=1.2 model=1 kW=3.00003 kvar=0.6107500293370508 Phases=2

New Load.load_p1ulv8309 conn=wye bus1=p1ulv8309.1.2 kV=0.2080002494301389 Vminpu=0.8 Vmaxpu=1.2 model=1 kW=3.06003 kvar=0.6197626431693976 Phases=2

New Load.load_p1ulv8310 conn=wye bus1=p1ulv8310.1.2.3 kV=0.48 Vminpu=0.8 Vmaxpu=1.2 model=1 kW=42.4704 kvar=8.623982540590417 Phases=3

New Load.load_p1ulv8311 conn=wye bus1=p1ulv8311.1.2 kV=0.2080002494301389 Vminpu=0.8 Vmaxpu=1.2 model=1 kW=10.27 kvar=0.5595731887375364 Phases=2

New Load.load_p1ulv8312 conn=wye bus1=p1ulv8312.1.2 kV=0.2080002494301389 Vminpu=0.8 Vmaxpu=1.2 model=1 kW=11.2 kvar=0.7493869570665965 Phases=2

New Load.load_p1ulv8313 conn=wye bus1=p1ulv8313.1.2 kV=0.2080002494301389 Vminpu=0.8 Vmaxpu=1.2 model=1 kW=2.62003 kvar=0.5306473197920009 Phases=2

New Load.load_p1ulv8314 conn=wye bus1=p1ulv8314.1.2 kV=0.2080002494301389 Vminpu=0.8 Vmaxpu=1.2 model=1 kW=3.0100300000000004 kvar=0.6096359018765115 Phases=2

New Load.load_p1ulv8315 conn=wye bus1=p1ulv8315.1.2 kV=0.2080002494301389 Vminpu=0.8 Vmaxpu=1.2 model=1 kW=10.49 kvar=0.6102734204701886 Phases=2

New Load.load_p1ulv8316 conn=wye bus1=p1ulv8316.1.2 kV=0.2080002494301389 Vminpu=0.8 Vmaxpu=1.2 model=1 kW=3.16003 kvar=0.6400161257551694 Phases=2

New Load.load_p1ulv8317 conn=wye bus1=p1ulv8317.1.2 kV=0.2080002494301389 Vminpu=0.8 Vmaxpu=1.2 model=1 kW=11.34 kvar=0.7797533791810017 Phases=2

New Load.load_p1ulv8318 conn=wye bus1=p1ulv8318.1.2 kV=0.2080002494301389 Vminpu=0.8 Vmaxpu=1.2 model=1 kW=3.0700300000000005 kvar=0.620176126836135 Phases=2

New Load.load_p1ulv8319 conn=wye bus1=p1ulv8319.1.2 kV=0.2080002494301389 Vminpu=0.8 Vmaxpu=1.2 model=1 kW=10.57 kvar=0.620176126836135 Phases=2

New Load.load_p1ulv8320 conn=wye bus1=p1ulv8320.1.2 kV=0.2080002494301389 Vminpu=0.8 Vmaxpu=1.2 model=1 kW=3.31003 kvar=0.6703963496338274 Phases=2

New Load.load_p1ulv8321 conn=wye bus1=p1ulv8321.1.2 kV=0.2080002494301389 Vminpu=0.8 Vmaxpu=1.2 model=1 kW=3.99004 kvar=0.8102121782761024 Phases=2

New Load.load_p1ulv8322 conn=wye bus1=p1ulv8322.1.2 kV=0.2080002494301389 Vminpu=0.8 Vmaxpu=1.2 model=1 kW=2.74003 kvar=0.5606733585797765 Phases=2

New Load.load_p1ulv8323 conn=wye bus1=p1ulv8323.1.2 kV=0.2080002494301389 Vminpu=0.8 Vmaxpu=1.2 model=1 kW=10.47 kvar=0.5999751474699353 Phases=2

New Load.load_p1ulv8324 conn=wye bus1=p1ulv8324.1.2 kV=0.2080002494301389 Vminpu=0.8 Vmaxpu=1.2 model=1 kW=2.75003 kvar=0.5598547025122315 Phases=2

New Load.load_p1ulv8325 conn=wye bus1=p1ulv8325.1.2 kV=0.2080002494301389 Vminpu=0.8 Vmaxpu=1.2 model=1 kW=4.62005 kvar=0.940555818788026 Phases=2

New Load.load_p1ulv8326 conn=wye bus1=p1ulv8326.1.2 kV=0.2080002494301389 Vminpu=0.8 Vmaxpu=1.2 model=1 kW=10.91 kvar=0.6906498322195993 Phases=2

New Load.load_p1ulv8327 conn=wye bus1=p1ulv8327.1.2 kV=0.2080002494301389 Vminpu=0.8 Vmaxpu=1.2 model=1 kW=10.33 kvar=0.580558608517704 Phases=2

New Load.load_p1ulv8328 conn=wye bus1=p1ulv8328.1.2 kV=0.2080002494301389 Vminpu=0.8 Vmaxpu=1.2 model=1 kW=9.84 kvar=0.47024129121548364 Phases=2

New Load.load_p1ulv8329 conn=wye bus1=p1ulv8329.1.2 kV=0.2080002494301389 Vminpu=0.8 Vmaxpu=1.2 model=1 kW=11.61 kvar=0.8302683323425464 Phases=2

New Load.load_p1ulv8330 conn=wye bus1=p1ulv8330.1.2 kV=0.2080002494301389 Vminpu=0.8 Vmaxpu=1.2 model=1 kW=3.70004 kvar=0.7493869570665965 Phases=2

New Load.load_p1ulv8331 conn=wye bus1=p1ulv8331.1.2 kV=0.2080002494301389 Vminpu=0.8 Vmaxpu=1.2 model=1 kW=10.84 kvar=0.679967673818805 Phases=2

New Load.load_p1ulv8332 conn=wye bus1=p1ulv8332.1.2 kV=0.2080002494301389 Vminpu=0.8 Vmaxpu=1.2 model=1 kW=3.42003 kvar=0.6998170481869153 Phases=2

New Load.load_p1ulv8333 conn=wye bus1=p1ulv8333.1.2 kV=0.2080002494301389 Vminpu=0.8 Vmaxpu=1.2 model=1 kW=10.71 kvar=0.6501428670480555 Phases=2

New Load.load_p1ulv8334 conn=wye bus1=p1ulv8334.1.2.3 kV=0.48 Vminpu=0.8 Vmaxpu=1.2 model=1 kW=200.412 kvar=40.69539229498207 Phases=3

New Load.load_p1ulv8336 conn=wye bus1=p1ulv8336.1.2 kV=0.2080002494301389 Vminpu=0.8 Vmaxpu=1.2 model=1 kW=4.18004 kvar=0.8509780077632708 Phases=2

New Load.load_p1ulv8338 conn=wye bus1=p1ulv8338.1.2 kV=0.2080002494301389 Vminpu=0.8 Vmaxpu=1.2 model=1 kW=2.75003 kvar=0.5598547025122315 Phases=2

New Load.load_p1ulv8339 conn=wye bus1=p1ulv8339.1.2 kV=0.2080002494301389 Vminpu=0.8 Vmaxpu=1.2 model=1 kW=3.20003 kvar=0.6497938057886328 Phases=2

New Load.load_p1ulv8341 conn=wye bus1=p1ulv8341.1.2 kV=0.2080002494301389 Vminpu=0.8 Vmaxpu=1.2 model=1 kW=2.77003 kvar=0.5595731887375364 Phases=2

New Load.load_p1ulv8342 conn=wye bus1=p1ulv8342.1.2 kV=0.2080002494301389 Vminpu=0.8 Vmaxpu=1.2 model=1 kW=2.85003 kvar=0.5802128332421591 Phases=2

New Load.load_p1ulv8344 conn=wye bus1=p1ulv8344.1.2 kV=0.2080002494301389 Vminpu=0.8 Vmaxpu=1.2 model=1 kW=2.77003 kvar=0.5595731887375364 Phases=2

New Load.load_p1ulv8345 conn=wye bus1=p1ulv8345.1.2 kV=0.2080002494301389 Vminpu=0.8 Vmaxpu=1.2 model=1 kW=12.0901 kvar=0.9296449774282256 Phases=2

New Load.load_p1ulv8347 conn=wye bus1=p1ulv8347.1.2 kV=0.2080002494301389 Vminpu=0.8 Vmaxpu=1.2 model=1 kW=3.06003 kvar=0.6197626431693976 Phases=2

New Load.load_p1ulv8348 conn=wye bus1=p1ulv8348.1.2.3 kV=0.48 Vminpu=0.8 Vmaxpu=1.2 model=1 kW=23.800199999999997 kvar=7.822747440077977 Phases=3

New Load.load_p1ulv8349 conn=wye bus1=p1ulv8349.1.2 kV=0.2080002494301389 Vminpu=0.8 Vmaxpu=1.2 model=1 kW=9.56 kvar=0.4204557986498457 Phases=2

New Load.load_p1ulv8350 conn=wye bus1=p1ulv8350.1.2 kV=0.2080002494301389 Vminpu=0.8 Vmaxpu=1.2 model=1 kW=10.58 kvar=0.6205753927367721 Phases=2

New Load.load_p1ulv8351 conn=wye bus1=p1ulv8351.1.2 kV=0.2080002494301389 Vminpu=0.8 Vmaxpu=1.2 model=1 kW=10.05 kvar=0.5204681994500374 Phases=2

New Load.load_p1ulv8352 conn=wye bus1=p1ulv8352.1.2 kV=0.2080002494301389 Vminpu=0.8 Vmaxpu=1.2 model=1 kW=10.3 kvar=0.5700337678771953 Phases=2

New Load.load_p1ulv8353 conn=wye bus1=p1ulv8353.1.2 kV=0.2080002494301389 Vminpu=0.8 Vmaxpu=1.2 model=1 kW=23.2801 kvar=1.6813419547424064 Phases=2

New Load.load_p1ulv8354 conn=wye bus1=p1ulv8354.1.2 kV=0.2080002494301389 Vminpu=0.8 Vmaxpu=1.2 model=1 kW=10.54 kvar=0.6204785592224786 Phases=2

New Load.load_p1ulv8355 conn=wye bus1=p1ulv8352.1.2 kV=0.2080002494301389 Vminpu=0.8 Vmaxpu=1.2 model=1 kW=11.8 kvar=0.8709078525812284 Phases=2

New Load.load_p1ulv8356 conn=wye bus1=p1ulv8356.1.2 kV=0.2080002494301389 Vminpu=0.8 Vmaxpu=1.2 model=1 kW=2.8000300000000005 kvar=0.5700337678771953 Phases=2

New Load.load_p1ulv8358 conn=wye bus1=p1ulv8358.1.2 kV=0.2080002494301389 Vminpu=0.8 Vmaxpu=1.2 model=1 kW=10.84 kvar=0.679967673818805 Phases=2

New Load.load_p1ulv8359 conn=wye bus1=p1ulv8359.1.2 kV=0.2080002494301389 Vminpu=0.8 Vmaxpu=1.2 model=1 kW=9.42 kvar=0.38987668959050087 Phases=2

New Load.load_p1ulv8360 conn=wye bus1=p1ulv8360.1.2 kV=0.2080002494301389 Vminpu=0.8 Vmaxpu=1.2 model=1 kW=3.6900400000000007 kvar=0.7492945800859013 Phases=2

New Load.load_p1ulv8362 conn=wye bus1=p1ulv8362.1.2 kV=0.2080002494301389 Vminpu=0.8 Vmaxpu=1.2 model=1 kW=10.91 kvar=0.6906498322195993 Phases=2

New Load.load_p1ulv8363 conn=wye bus1=p1ulv8363.1.2 kV=0.2080002494301389 Vminpu=0.8 Vmaxpu=1.2 model=1 kW=10.44 kvar=0.6000682817178988 Phases=2

New Load.load_p1ulv8364 conn=wye bus1=p1ulv8364.1.2 kV=0.2080002494301389 Vminpu=0.8 Vmaxpu=1.2 model=1 kW=3.35003 kvar=0.6802526048837334 Phases=2

New Load.load_p1ulv8366 conn=wye bus1=p1ulv8366.1.2 kV=0.2080002494301389 Vminpu=0.8 Vmaxpu=1.2 model=1 kW=4.33004 kvar=0.879252122891664 Phases=2

New Load.load_p1ulv8367 conn=wye bus1=p1ulv8367.1.2 kV=0.2080002494301389 Vminpu=0.8 Vmaxpu=1.2 model=1 kW=10.5 kvar=0.6107500293370508 Phases=2

New Load.load_p1ulv8368 conn=wye bus1=p1ulv8368.1.2 kV=0.2080002494301389 Vminpu=0.8 Vmaxpu=1.2 model=1 kW=10.98 kvar=0.71028378024263 Phases=2

New Load.load_p1ulv8369 conn=wye bus1=p1ulv8369.1.2 kV=0.2080002494301389 Vminpu=0.8 Vmaxpu=1.2 model=1 kW=3.08003 kvar=0.6205753927367721 Phases=2

New Load.load_p1ulv8370 conn=wye bus1=p1ulv8370.1.2 kV=0.2080002494301389 Vminpu=0.8 Vmaxpu=1.2 model=1 kW=10.96 kvar=0.7007765735124853 Phases=2

New Load.load_p1ulv8371 conn=wye bus1=p1ulv8371.1.2 kV=0.2080002494301389 Vminpu=0.8 Vmaxpu=1.2 model=1 kW=11.91 kvar=0.890871270441145 Phases=2

New Load.load_p1ulv8372 conn=wye bus1=p1ulv8372.1.2 kV=0.2080002494301389 Vminpu=0.8 Vmaxpu=1.2 model=1 kW=1.64002 kvar=0.32957202178580414 Phases=2

New Load.load_p1ulv8373 conn=wye bus1=p1ulv8373.1.2.3 kV=0.48 Vminpu=0.8 Vmaxpu=1.2 model=1 kW=25.360299999999995 kvar=8.344523299510175 Phases=3

New Load.load_p1ulv8374 conn=wye bus1=p1ulv8374.1.2 kV=0.2080002494301389 Vminpu=0.8 Vmaxpu=1.2 model=1 kW=10.64 kvar=0.6392514123589496 Phases=2

New Load.load_p1ulv8375 conn=wye bus1=p1ulv8375.1.2 kV=0.2080002494301389 Vminpu=0.8 Vmaxpu=1.2 model=1 kW=3.10003 kvar=0.6294879397252322 Phases=2

New Load.load_p1ulv8377 conn=wye bus1=p1ulv8377.1.2 kV=0.2080002494301389 Vminpu=0.8 Vmaxpu=1.2 model=1 kW=3.67004 kvar=0.749065348529082 Phases=2

New Load.load_p1ulv8380 conn=wye bus1=p1ulv8380.1.2 kV=0.2080002494301389 Vminpu=0.8 Vmaxpu=1.2 model=1 kW=11.4601 kvar=2.327072556731753 Phases=2

New Load.load_p1ulv8383 conn=wye bus1=p1ulv8383.1.2 kV=0.2080002494301389 Vminpu=0.8 Vmaxpu=1.2 model=1 kW=3.00003 kvar=0.6107500293370508 Phases=2

New Load.load_p1ulv8385 conn=wye bus1=p1ulv8385.1.2 kV=0.2080002494301389 Vminpu=0.8 Vmaxpu=1.2 model=1 kW=10.1 kvar=0.5306733382023273 Phases=2

New Load.load_p1ulv8386 conn=wye bus1=p1ulv8386.1.2 kV=0.2080002494301389 Vminpu=0.8 Vmaxpu=1.2 model=1 kW=10.52 kvar=0.6100756371530351 Phases=2

New Load.load_p1ulv8387 conn=wye bus1=p1ulv8387.1.2 kV=0.2080002494301389 Vminpu=0.8 Vmaxpu=1.2 model=1 kW=2.95003 kvar=0.6005709639720869 Phases=2

New Load.load_p1ulv8388 conn=wye bus1=p1ulv8388.1.2 kV=0.2080002494301389 Vminpu=0.8 Vmaxpu=1.2 model=1 kW=10.82 kvar=0.6706785752516337 Phases=2

New Load.load_p1ulv8390 conn=wye bus1=p1ulv8390.1.2 kV=0.2080002494301389 Vminpu=0.8 Vmaxpu=1.2 model=1 kW=2.28002 kvar=0.46058636974522216 Phases=2

New Load.load_p1ulv8391 conn=wye bus1=p1ulv8391.1.2 kV=0.2080002494301389 Vminpu=0.8 Vmaxpu=1.2 model=1 kW=10.29 kvar=0.569452865461029 Phases=2

New Load.load_p1ulv8392 conn=wye bus1=p1ulv8392.1.2 kV=0.2080002494301389 Vminpu=0.8 Vmaxpu=1.2 model=1 kW=11.69 kvar=0.8508239104029033 Phases=2

New Load.load_p1ulv8393 conn=wye bus1=p1ulv8393.1.2 kV=0.2080002494301389 Vminpu=0.8 Vmaxpu=1.2 model=1 kW=11.05 kvar=0.7208663675971405 Phases=2

New Load.load_p1ulv8394 conn=wye bus1=p1ulv8394.1.2 kV=0.2080002494301389 Vminpu=0.8 Vmaxpu=1.2 model=1 kW=10.62 kvar=0.6302766165192346 Phases=2

New Load.load_p1ulv8395 conn=wye bus1=p1ulv8395.1.2 kV=0.2080002494301389 Vminpu=0.8 Vmaxpu=1.2 model=1 kW=4.16004 kvar=0.8403688220256462 Phases=2

New Load.load_p1ulv8396 conn=wye bus1=p1ulv8396.1.2 kV=0.2080002494301389 Vminpu=0.8 Vmaxpu=1.2 model=1 kW=2.89003 kvar=0.5898631429656088 Phases=2

New Load.load_p1ulv8397 conn=wye bus1=p1ulv8397.1.2 kV=0.2080002494301389 Vminpu=0.8 Vmaxpu=1.2 model=1 kW=13.1701 kvar=1.1513547893144422 Phases=2

New Load.load_p1ulv8398 conn=wye bus1=p1ulv8398.1.2 kV=0.2080002494301389 Vminpu=0.8 Vmaxpu=1.2 model=1 kW=3.51004 kvar=0.7109053401536299 Phases=2

New Load.load_p1ulv8399 conn=wye bus1=p1ulv8399.1.2 kV=0.2080002494301389 Vminpu=0.8 Vmaxpu=1.2 model=1 kW=3.20003 kvar=0.6497938057886328 Phases=2

New Load.load_p1ulv8400 conn=wye bus1=p1ulv8400.1.2 kV=0.2080002494301389 Vminpu=0.8 Vmaxpu=1.2 model=1 kW=2.62003 kvar=0.5306473197920009 Phases=2

New Load.load_p1ulv8401 conn=wye bus1=p1ulv8401.1.2 kV=0.2080002494301389 Vminpu=0.8 Vmaxpu=1.2 model=1 kW=16.8101 kvar=1.890494405782037 Phases=2

New Load.load_p1ulv8402 conn=wye bus1=p1ulv8402.1.2 kV=0.2080002494301389 Vminpu=0.8 Vmaxpu=1.2 model=1 kW=3.44003 kvar=0.7003258045487328 Phases=2

New Load.load_p1ulv8403 conn=wye bus1=p1ulv8403.1.2 kV=0.2080002494301389 Vminpu=0.8 Vmaxpu=1.2 model=1 kW=1.82002 kvar=0.3695708235271005 Phases=2

New Load.load_p1ulv8404 conn=wye bus1=p1ulv8402.1.2 kV=0.2080002494301389 Vminpu=0.8 Vmaxpu=1.2 model=1 kW=3.16003 kvar=0.6400161257551694 Phases=2

New Load.load_p1ulv8405 conn=wye bus1=p1ulv8405.1.2 kV=0.2080002494301389 Vminpu=0.8 Vmaxpu=1.2 model=1 kW=2.44002 kvar=0.5005510952023011 Phases=2

New Load.load_p1ulv8406 conn=wye bus1=p1ulv8406.1.2 kV=0.2080002494301389 Vminpu=0.8 Vmaxpu=1.2 model=1 kW=2.8000300000000005 kvar=0.5700337678771953 Phases=2

New Load.load_p1ulv8407 conn=wye bus1=p1ulv8407.1.2 kV=0.2080002494301389 Vminpu=0.8 Vmaxpu=1.2 model=1 kW=1.67002 kvar=0.339984854815939 Phases=2

New Load.load_p1ulv8408 conn=wye bus1=p1ulv8408.1.2 kV=0.2080002494301389 Vminpu=0.8 Vmaxpu=1.2 model=1 kW=18.37 kvar=0.6807790649347335 Phases=2

New Load.load_p1ulv8409 conn=wye bus1=p1ulv8409.1.2.3 kV=0.48 Vminpu=0.8 Vmaxpu=1.2 model=1 kW=98.601 kvar=20.021786997173454 Phases=3

New Load.load_p1ulv8410 conn=wye bus1=p1ulv8410.1.2 kV=0.2080002494301389 Vminpu=0.8 Vmaxpu=1.2 model=1 kW=10.62 kvar=0.6302766165192346 Phases=2

New Load.load_p1ulv8411 conn=wye bus1=p1ulv8411.1.2 kV=0.2080002494301389 Vminpu=0.8 Vmaxpu=1.2 model=1 kW=11.7201 kvar=3.8480500591320954 Phases=2

New Load.load_p1ulv8412 conn=wye bus1=p1ulv8412.1.2 kV=0.2080002494301389 Vminpu=0.8 Vmaxpu=1.2 model=1 kW=3.11003 kvar=0.6298893844622836 Phases=2

New Load.load_p1ulv8413 conn=wye bus1=p1ulv8413.1.2 kV=0.2080002494301389 Vminpu=0.8 Vmaxpu=1.2 model=1 kW=1.7300200000000001 kvar=0.350389299430372 Phases=2

New Load.load_p1ulv8414 conn=wye bus1=p1ulv8414.1.2 kV=0.2080002494301389 Vminpu=0.8 Vmaxpu=1.2 model=1 kW=3.48003 kvar=0.71028378024263 Phases=2

New Load.load_p1ulv8415 conn=wye bus1=p1ulv8415.1.2 kV=0.2080002494301389 Vminpu=0.8 Vmaxpu=1.2 model=1 kW=2.90003 kvar=0.5903918986071232 Phases=2

New Load.load_p1ulv8416 conn=wye bus1=p1ulv8416.1.2 kV=0.2080002494301389 Vminpu=0.8 Vmaxpu=1.2 model=1 kW=10.53 kvar=0.6105012150057635 Phases=2

New Load.load_p1ulv8417 conn=wye bus1=p1ulv8417.1.2 kV=0.2080002494301389 Vminpu=0.8 Vmaxpu=1.2 model=1 kW=4.64005 kvar=0.9397717187211114 Phases=2

New Load.load_p1ulv8418 conn=wye bus1=p1ulv8418.1.2 kV=0.2080002494301389 Vminpu=0.8 Vmaxpu=1.2 model=1 kW=10.58 kvar=0.6205753927367721 Phases=2

New Load.load_p1ulv8419 conn=wye bus1=p1ulv8419.1.2 kV=0.2080002494301389 Vminpu=0.8 Vmaxpu=1.2 model=1 kW=11.63 kvar=0.840798942398307 Phases=2

New Load.load_p1ulv9181 conn=wye bus1=p1ulv9181.1.2 kV=0.2080002494301389 Vminpu=0.8 Vmaxpu=1.2 model=1 kW=5.21005 kvar=1.7106111049036419 Phases=2

New Load.load_p1ulv9182 conn=wye bus1=p1ulv9182.1.2.3 kV=0.48 Vminpu=0.8 Vmaxpu=1.2 model=1 kW=28.210300000000004 kvar=5.728345734083452 Phases=3

New Load.load_p1ulv9183 conn=wye bus1=p1ulv9183.1.2 kV=0.2080002494301389 Vminpu=0.8 Vmaxpu=1.2 model=1 kW=8.26008 kvar=1.681597884796614 Phases=2

New Load.load_p1ulv9184 conn=wye bus1=p1ulv9184.1.2 kV=0.2080002494301389 Vminpu=0.8 Vmaxpu=1.2 model=1 kW=13.920100000000001 kvar=2.826596861891403 Phases=2

New Load.load_p1ulv9185 conn=wye bus1=p1ulv9185.1.2 kV=0.2080002494301389 Vminpu=0.8 Vmaxpu=1.2 model=1 kW=31.1401 kvar=1.749919123545024 Phases=2

New Load.load_p1ulv9186 conn=wye bus1=p1ulv9186.1.2 kV=0.2080002494301389 Vminpu=0.8 Vmaxpu=1.2 model=1 kW=1.7400200000000001 kvar=0.3496676317043298 Phases=2

New Load.load_p1ulv9187 conn=wye bus1=p1ulv9187.1.2 kV=0.2080002494301389 Vminpu=0.8 Vmaxpu=1.2 model=1 kW=3.00003 kvar=0.6107500293370508 Phases=2

New Load.load_p1ulv9188 conn=wye bus1=p1ulv9188.1.2.3 kV=0.48 Vminpu=0.8 Vmaxpu=1.2 model=1 kW=25.2203 kvar=5.121200338787779 Phases=3

New Load.load_p1ulv9189 conn=wye bus1=p1ulv9189.1.2 kV=0.2080002494301389 Vminpu=0.8 Vmaxpu=1.2 model=1 kW=10.89 kvar=0.6901467391837689 Phases=2

New Load.load_p1ulv9190 conn=wye bus1=p1ulv9190.1.2 kV=0.2080002494301389 Vminpu=0.8 Vmaxpu=1.2 model=1 kW=9.54 kvar=0.4099544614599067 Phases=2

New Load.load_p1ulv9191 conn=wye bus1=p1ulv9191.1.2 kV=0.2080002494301389 Vminpu=0.8 Vmaxpu=1.2 model=1 kW=3.22003 kvar=0.6504775958854341 Phases=2

New Load.load_p1ulv9192 conn=wye bus1=p1ulv9192.1.2 kV=0.2080002494301389 Vminpu=0.8 Vmaxpu=1.2 model=1 kW=1.52002 kvar=0.31024030012511455 Phases=2

New Load.load_p1ulv9193 conn=wye bus1=p1ulv9193.1.2.3 kV=0.48 Vminpu=0.8 Vmaxpu=1.2 model=1 kW=34.87029999999999 kvar=11.461313352818513 Phases=3

New Load.load_p1ulv9194 conn=wye bus1=p1ulv9194.1.2 kV=0.2080002494301389 Vminpu=0.8 Vmaxpu=1.2 model=1 kW=10.57 kvar=0.620176126836135 Phases=2

New Load.load_p1ulv9195 conn=wye bus1=p1ulv9195.1.2 kV=0.2080002494301389 Vminpu=0.8 Vmaxpu=1.2 model=1 kW=10.3 kvar=0.5700337678771953 Phases=2

New Load.load_p1ulv9196 conn=wye bus1=p1ulv9196.1.2 kV=0.2080002494301389 Vminpu=0.8 Vmaxpu=1.2 model=1 kW=3.17003 kvar=0.6403771062023346 Phases=2

New Load.load_p1ulv9197 conn=wye bus1=p1ulv9197.1.2 kV=0.2080002494301389 Vminpu=0.8 Vmaxpu=1.2 model=1 kW=10.34 kvar=0.5796580042133189 Phases=2

New Load.load_p1ulv9198 conn=wye bus1=p1ulv9198.1.2 kV=0.2080002494301389 Vminpu=0.8 Vmaxpu=1.2 model=1 kW=9.69 kvar=0.44009787633769515 Phases=2

New Load.load_p1ulv9199 conn=wye bus1=p1ulv9199.1.2 kV=0.2080002494301389 Vminpu=0.8 Vmaxpu=1.2 model=1 kW=2.75003 kvar=0.5598547025122315 Phases=2

New Load.load_p1ulv9200 conn=wye bus1=p1ulv9200.1.2 kV=0.2080002494301389 Vminpu=0.8 Vmaxpu=1.2 model=1 kW=10.5 kvar=0.6107500293370508 Phases=2

New Load.load_p1ulv9201 conn=wye bus1=p1ulv9201.1.2 kV=0.2080002494301389 Vminpu=0.8 Vmaxpu=1.2 model=1 kW=3.17003 kvar=0.6403771062023346 Phases=2

New Load.load_p1ulv9203 conn=wye bus1=p1ulv9203.1.2 kV=0.2080002494301389 Vminpu=0.8 Vmaxpu=1.2 model=1 kW=10.86 kvar=0.6805230909267135 Phases=2

New Load.load_p1ulv9204 conn=wye bus1=p1ulv9204.1.2 kV=0.2080002494301389 Vminpu=0.8 Vmaxpu=1.2 model=1 kW=10.37 kvar=0.5797741681037358 Phases=2

New Load.load_p1ulv9205 conn=wye bus1=p1ulv9205.1.2 kV=0.2080002494301389 Vminpu=0.8 Vmaxpu=1.2 model=1 kW=11.34 kvar=0.7797533791810017 Phases=2

New Load.load_p1ulv9206 conn=wye bus1=p1ulv9206.1.2 kV=0.2080002494301389 Vminpu=0.8 Vmaxpu=1.2 model=1 kW=11.36 kvar=0.7797658839270477 Phases=2

New Load.load_p1ulv10505 conn=wye bus1=p1ulv10505.1.2 kV=0.2080002494301389 Vminpu=0.8 Vmaxpu=1.2 model=1 kW=7.02007 kvar=2.3098755803043507 Phases=2

New Load.load_p1ulv10506 conn=wye bus1=p1ulv10506.1.2 kV=0.2080002494301389 Vminpu=0.8 Vmaxpu=1.2 model=1 kW=9.06009 kvar=2.9811213629436235 Phases=2

New Load.load_p1ulv10522 conn=wye bus1=p1ulv10522.1.2 kV=0.2080002494301389 Vminpu=0.8 Vmaxpu=1.2 model=1 kW=2.1200200000000002 kvar=0.4304884217173018 Phases=2

New Load.load_p1ulv10523 conn=wye bus1=p1ulv10523.1.2 kV=0.2080002494301389 Vminpu=0.8 Vmaxpu=1.2 model=1 kW=2.52003 kvar=0.510393837206229 Phases=2

New Load.load_p1ulv12681 conn=wye bus1=p1ulv12681.1.2.3 kV=0.48 Vminpu=0.8 Vmaxpu=1.2 model=1 kW=23.7902 kvar=7.819460599026189 Phases=3

New Load.load_p1ulv12682 conn=wye bus1=p1ulv12682.1.2.3 kV=0.48 Vminpu=0.8 Vmaxpu=1.2 model=1 kW=67.7507 kvar=22.2685782047416 Phases=3

New Load.load_p1ulv12683 conn=wye bus1=p1ulv12683.1.2 kV=0.2080002494301389 Vminpu=0.8 Vmaxpu=1.2 model=1 kW=13.2101 kvar=4.341949897823301 Phases=2

New Load.load_p1ulv12684 conn=wye bus1=p1ulv12684.1.2.3 kV=0.48 Vminpu=0.8 Vmaxpu=1.2 model=1 kW=22.5302 kvar=7.397320623736822 Phases=3

New Load.load_p1ulv16470 conn=wye bus1=p1ulv16470.1.2 kV=0.2080002494301389 Vminpu=0.8 Vmaxpu=1.2 model=1 kW=3.06003 kvar=0.6197626431693976 Phases=2

New Load.load_p1ulv24097 conn=wye bus1=p1ulv24097.1.2 kV=0.2080002494301389 Vminpu=0.8 Vmaxpu=1.2 model=1 kW=2.94003 kvar=0.6000682817178988 Phases=2

New Load.load_p1ulv24124 conn=wye bus1=p1ulv24124.1.2 kV=0.2080002494301389 Vminpu=0.8 Vmaxpu=1.2 model=1 kW=3.64004 kvar=0.739141647054201 Phases=2

New Load.load_p1ulv24125 conn=wye bus1=p1ulv24125.1.2 kV=0.2080002494301389 Vminpu=0.8 Vmaxpu=1.2 model=1 kW=2.81003 kvar=0.570600928141371 Phases=2

New Load.load_p1ulv24126 conn=wye bus1=p1ulv24126.1.2 kV=0.2080002494301389 Vminpu=0.8 Vmaxpu=1.2 model=1 kW=3.09003 kvar=0.6306836979747686 Phases=2

New Load.load_p1ulv24127 conn=wye bus1=p1ulv24127.1.2 kV=0.2080002494301389 Vminpu=0.8 Vmaxpu=1.2 model=1 kW=18.5702 kvar=3.7708399397055863 Phases=2

New Load.load_p1ulv24128 conn=wye bus1=p1ulv24128.1.2 kV=0.2080002494301389 Vminpu=0.8 Vmaxpu=1.2 model=1 kW=7.66008 kvar=1.5594491004170477 Phases=2

New Load.load_p1ulv24129 conn=wye bus1=p1ulv24129.1.2 kV=0.2080002494301389 Vminpu=0.8 Vmaxpu=1.2 model=1 kW=8.56009 kvar=1.7382004103065338 Phases=2

New Load.load_p1ulv24130 conn=wye bus1=p1ulv24130.1.2 kV=0.2080002494301389 Vminpu=0.8 Vmaxpu=1.2 model=1 kW=5.15005 kvar=1.0511394966246144 Phases=2

New Load.load_p1ulv24131 conn=wye bus1=p1ulv24131.1.2 kV=0.2080002494301389 Vminpu=0.8 Vmaxpu=1.2 model=1 kW=9.120090000000001 kvar=1.8519132602615762 Phases=2

New Load.load_p1ulv24132 conn=wye bus1=p1ulv24132.1.2 kV=0.2080002494301389 Vminpu=0.8 Vmaxpu=1.2 model=1 kW=5.07005 kvar=1.0295175623474335 Phases=2

New Load.load_p1ulv24133 conn=wye bus1=p1ulv24133.1.2 kV=0.2080002494301389 Vminpu=0.8 Vmaxpu=1.2 model=1 kW=3.22003 kvar=0.6504775958854341 Phases=2

New Load.load_p1ulv24134 conn=wye bus1=p1ulv24134.1.2 kV=0.2080002494301389 Vminpu=0.8 Vmaxpu=1.2 model=1 kW=11.6501 kvar=2.3595509747250185 Phases=2

New Load.load_p1ulv24135 conn=wye bus1=p1ulv24135.1.2 kV=0.2080002494301389 Vminpu=0.8 Vmaxpu=1.2 model=1 kW=6.09006 kvar=1.9995440092762016 Phases=2

New Load.load_p1ulv24136 conn=wye bus1=p1ulv24136.1.2.3 kV=0.48 Vminpu=0.8 Vmaxpu=1.2 model=1 kW=31.5203 kvar=10.36022160046932 Phases=3

New Load.load_p1ulv24137 conn=wye bus1=p1ulv24137.1.2 kV=0.2080002494301389 Vminpu=0.8 Vmaxpu=1.2 model=1 kW=10.260100000000001 kvar=3.3686895514288455 Phases=2

New Load.load_p1ulv24138 conn=wye bus1=p1ulv24138.1.2 kV=0.2080002494301389 Vminpu=0.8 Vmaxpu=1.2 model=1 kW=7.87008 kvar=2.5895618714687547 Phases=2

New Load.load_p1ulv24139 conn=wye bus1=p1ulv24139.1.2 kV=0.2080002494301389 Vminpu=0.8 Vmaxpu=1.2 model=1 kW=7.02007 kvar=2.3098755803043507 Phases=2

New Load.load_p1ulv24140 conn=wye bus1=p1ulv24140.1.2 kV=0.2080002494301389 Vminpu=0.8 Vmaxpu=1.2 model=1 kW=8.96009 kvar=1.8194238745601352 Phases=2

New Load.load_p1ulv24141 conn=wye bus1=p1ulv24141.1.2 kV=0.2080002494301389 Vminpu=0.8 Vmaxpu=1.2 model=1 kW=2.62003 kvar=0.5306473197920009 Phases=2

New Load.load_p1ulv24142 conn=wye bus1=p1ulv24142.1.2 kV=0.2080002494301389 Vminpu=0.8 Vmaxpu=1.2 model=1 kW=5.07005 kvar=1.0295175623474335 Phases=2

New Load.load_p1ulv24143 conn=wye bus1=p1ulv24143.1.2 kV=0.2080002494301389 Vminpu=0.8 Vmaxpu=1.2 model=1 kW=19.0002 kvar=3.8581551637782083 Phases=2

New Load.load_p1ulv24144 conn=wye bus1=p1ulv24144.1.2 kV=0.2080002494301389 Vminpu=0.8 Vmaxpu=1.2 model=1 kW=4.14004 kvar=1.3592956687066866 Phases=2

New Load.load_p1ulv24145 conn=wye bus1=p1ulv24145.1.2 kV=0.2080002494301389 Vminpu=0.8 Vmaxpu=1.2 model=1 kW=3.25003 kvar=0.659946738820333 Phases=2

New Load.load_p1ulv24146 conn=wye bus1=p1ulv24145.1.2 kV=0.2080002494301389 Vminpu=0.8 Vmaxpu=1.2 model=1 kW=6.780070000000001 kvar=1.3802955141806108 Phases=2

New Load.load_p1ulv24147 conn=wye bus1=p1ulv24147.1.2 kV=0.2080002494301389 Vminpu=0.8 Vmaxpu=1.2 model=1 kW=6.17006 kvar=1.249652027631681 Phases=2

New Load.load_p1ulv24148 conn=wye bus1=p1ulv24148.1.2 kV=0.2080002494301389 Vminpu=0.8 Vmaxpu=1.2 model=1 kW=13.590100000000001 kvar=2.7595875038821815 Phases=2

New Load.load_p1ulv24149 conn=wye bus1=p1ulv24149.1.2.3 kV=0.48 Vminpu=0.8 Vmaxpu=1.2 model=1 kW=33.55029999999999 kvar=6.812678981869034 Phases=3

New Load.load_p1ulv24150 conn=wye bus1=p1ulv24150.1.2 kV=0.2080002494301389 Vminpu=0.8 Vmaxpu=1.2 model=1 kW=12.0301 kvar=2.4428159932931344 Phases=2

New Load.load_p1ulv24151 conn=wye bus1=p1ulv24151.1.2 kV=0.2080002494301389 Vminpu=0.8 Vmaxpu=1.2 model=1 kW=2.63003 kvar=0.5299077931576943 Phases=2

New Load.load_p1ulv24152 conn=wye bus1=p1ulv24151.1.2 kV=0.2080002494301389 Vminpu=0.8 Vmaxpu=1.2 model=1 kW=7.05007 kvar=1.4315777715759745 Phases=2

New Load.load_p1ulv24153 conn=wye bus1=p1ulv24153.1.2 kV=0.2080002494301389 Vminpu=0.8 Vmaxpu=1.2 model=1 kW=12.3101 kvar=2.4996724182706562 Phases=2

New Load.load_p1ulv24154 conn=wye bus1=p1ulv24154.1.2 kV=0.2080002494301389 Vminpu=0.8 Vmaxpu=1.2 model=1 kW=7.15007 kvar=1.448138182320505 Phases=2

New Load.load_p1ulv24167 conn=wye bus1=p1ulv24167.1.2.3 kV=0.48 Vminpu=0.8 Vmaxpu=1.2 model=1 kW=65.94069999999999 kvar=21.67365997436786 Phases=3

New Load.load_p1ulv24168 conn=wye bus1=p1ulv24168.1.2.3 kV=0.48 Vminpu=0.8 Vmaxpu=1.2 model=1 kW=68.0007 kvar=22.350749231036318 Phases=3

New Load.load_p1ulv24169 conn=wye bus1=p1ulv24169.1.2.3 kV=0.48 Vminpu=0.8 Vmaxpu=1.2 model=1 kW=41.8304 kvar=13.748987593273917 Phases=3

New Load.load_p1ulv24518 conn=wye bus1=p1ulv24518.1.2.3 kV=0.48 Vminpu=0.8 Vmaxpu=1.2 model=1 kW=20.880200000000002 kvar=6.862989852955699 Phases=3

New Load.load_p1ulv24522 conn=wye bus1=p1ulv24522.1.2 kV=0.2080002494301389 Vminpu=0.8 Vmaxpu=1.2 model=1 kW=7.74008 kvar=1.5716902780000437 Phases=2

New Load.load_p1ulv24523 conn=wye bus1=p1ulv24523.1.2.3 kV=0.48 Vminpu=0.8 Vmaxpu=1.2 model=1 kW=67.6907 kvar=22.248857158430873 Phases=3

New Load.load_p1ulv24524 conn=wye bus1=p1ulv24524.1.2 kV=0.2080002494301389 Vminpu=0.8 Vmaxpu=1.2 model=1 kW=2.7600300000000004 kvar=0.5604479951096709 Phases=2

New Load.load_p1ulv24525 conn=wye bus1=p1ulv24525.1.2 kV=0.2080002494301389 Vminpu=0.8 Vmaxpu=1.2 model=1 kW=3.36003 kvar=0.6805230909267135 Phases=2

New Load.load_p1ulv24526 conn=wye bus1=p1ulv24526.1.2 kV=0.2080002494301389 Vminpu=0.8 Vmaxpu=1.2 model=1 kW=2.91003 kvar=0.5893824192907394 Phases=2

New Load.load_p1ulv24527 conn=wye bus1=p1ulv24527.1.2 kV=0.2080002494301389 Vminpu=0.8 Vmaxpu=1.2 model=1 kW=3.08003 kvar=0.6302452033833459 Phases=2

New Load.load_p1ulv24528 conn=wye bus1=p1ulv24528.1.2 kV=0.2080002494301389 Vminpu=0.8 Vmaxpu=1.2 model=1 kW=6.51007 kvar=1.3185158937715642 Phases=2

New Load.load_p1ulv24529 conn=wye bus1=p1ulv24529.1.2 kV=0.2080002494301389 Vminpu=0.8 Vmaxpu=1.2 model=1 kW=4.14004 kvar=1.3592956687066866 Phases=2

New Load.load_p1ulv24530 conn=wye bus1=p1ulv24530.1.2 kV=0.2080002494301389 Vminpu=0.8 Vmaxpu=1.2 model=1 kW=4.14004 kvar=1.3592956687066866 Phases=2

New Load.load_p1ulv24531 conn=wye bus1=p1ulv24531.1.2 kV=0.2080002494301389 Vminpu=0.8 Vmaxpu=1.2 model=1 kW=2.96003 kvar=0.5995091605836256 Phases=2

New Load.load_p1ulv24532 conn=wye bus1=p1ulv24532.1.2 kV=0.2080002494301389 Vminpu=0.8 Vmaxpu=1.2 model=1 kW=2.77003 kvar=0.5595731887375364 Phases=2

New Load.load_p1umv37 conn=wye bus1=p1umv37.1.2.3 kV=12.47 Vminpu=0.8 Vmaxpu=1.2 model=1 kW=6492.97 kvar=2134.136034403203 Phases=3

New Load.load_p1ulv24533 conn=wye bus1=p1ulv24533.1.2 kV=0.2080002494301389 Vminpu=0.8 Vmaxpu=1.2 model=1 kW=3.08003 kvar=0.6205753927367721 Phases=2

New Load.load_p1ulv24534 conn=wye bus1=p1ulv24534.1.2 kV=0.2080002494301389 Vminpu=0.8 Vmaxpu=1.2 model=1 kW=3.70004 kvar=0.7493869570665965 Phases=2

New Load.load_p1ulv24535 conn=wye bus1=p1ulv24535.1.2 kV=0.2080002494301389 Vminpu=0.8 Vmaxpu=1.2 model=1 kW=2.99003 kvar=0.6102734204701886 Phases=2

New Load.load_p1ulv24536 conn=wye bus1=p1ulv24536.1.2 kV=0.2080002494301389 Vminpu=0.8 Vmaxpu=1.2 model=1 kW=2.79003 kvar=0.569452865461029 Phases=2

New Load.load_p1ulv24537 conn=wye bus1=p1ulv24537.1.2 kV=0.2080002494301389 Vminpu=0.8 Vmaxpu=1.2 model=1 kW=4.670050000000001 kvar=1.52999392305181 Phases=2

New Load.load_p1ulv24538 conn=wye bus1=p1ulv24538.1.2 kV=0.2080002494301389 Vminpu=0.8 Vmaxpu=1.2 model=1 kW=3.85004 kvar=0.7797671809452545 Phases=2

New Load.load_p1ulv24539 conn=wye bus1=p1ulv24539.1.2 kV=0.2080002494301389 Vminpu=0.8 Vmaxpu=1.2 model=1 kW=3.06003 kvar=0.6197626431693976 Phases=2

New Load.load_p1ulv24540 conn=wye bus1=p1ulv24540.1.2 kV=0.2080002494301389 Vminpu=0.8 Vmaxpu=1.2 model=1 kW=3.35003 kvar=0.6802526048837334 Phases=2

New Load.load_p1ulv26008 conn=wye bus1=p1ulv26008.1.2 kV=0.2080002494301389 Vminpu=0.8 Vmaxpu=1.2 model=1 kW=3.42003 kvar=0.6998170481869153 Phases=2

New Load.load_p1ulv26032 conn=wye bus1=p1ulv26032.1.2 kV=0.2080002494301389 Vminpu=0.8 Vmaxpu=1.2 model=1 kW=2.77003 kvar=0.5595731887375364 Phases=2

New Load.load_p1ulv26097 conn=wye bus1=p1ulv26097.1.2 kV=0.2080002494301389 Vminpu=0.8 Vmaxpu=1.2 model=1 kW=3.12003 kvar=0.6302766165192346 Phases=2

New Load.load_p1ulv26140 conn=wye bus1=p1ulv26140.1.2 kV=0.2080002494301389 Vminpu=0.8 Vmaxpu=1.2 model=1 kW=2.26002 kvar=0.4600978261225126 Phases=2

New Load.load_p1ulv26161 conn=wye bus1=p1ulv26161.1.2 kV=0.2080002494301389 Vminpu=0.8 Vmaxpu=1.2 model=1 kW=4.17004 kvar=0.8489421946902781 Phases=2

New Load.load_p1ulv26182 conn=wye bus1=p1ulv26182.1.2 kV=0.2080002494301389 Vminpu=0.8 Vmaxpu=1.2 model=1 kW=3.7100400000000002 kvar=0.7494644148777485 Phases=2

New Load.load_p1ulv26184 conn=wye bus1=p1ulv26184.1.2 kV=0.2080002494301389 Vminpu=0.8 Vmaxpu=1.2 model=1 kW=5.86006 kvar=1.1899359348349032 Phases=2

New Load.load_p1ulv26232 conn=wye bus1=p1ulv26232.1.2 kV=0.2080002494301389 Vminpu=0.8 Vmaxpu=1.2 model=1 kW=3.63004 kvar=0.7409012375272501 Phases=2

New Load.load_p1ulv26234 conn=wye bus1=p1ulv26234.1.2.3 kV=0.48 Vminpu=0.8 Vmaxpu=1.2 model=1 kW=52.740500000000004 kvar=10.709415291167703 Phases=3

New Load.load_p1ulv26298 conn=wye bus1=p1ulv26298.1.2 kV=0.2080002494301389 Vminpu=0.8 Vmaxpu=1.2 model=1 kW=1.95002 kvar=0.40003141231071515 Phases=2

New Load.load_p1ulv26315 conn=wye bus1=p1ulv26315.1.2 kV=0.2080002494301389 Vminpu=0.8 Vmaxpu=1.2 model=1 kW=14.2801 kvar=2.8996979797196443 Phases=2

New Load.load_p1ulv26319 conn=wye bus1=p1ulv26319.1.2 kV=0.2080002494301389 Vminpu=0.8 Vmaxpu=1.2 model=1 kW=4.66005 kvar=0.951129136852173 Phases=2

New Load.load_p1ulv26342 conn=wye bus1=p1ulv26342.1.2 kV=0.2080002494301389 Vminpu=0.8 Vmaxpu=1.2 model=1 kW=3.53004 kvar=0.7204909600226704 Phases=2

New Load.load_p1ulv26344 conn=wye bus1=p1ulv26344.1.2 kV=0.2080002494301389 Vminpu=0.8 Vmaxpu=1.2 model=1 kW=3.41003 kvar=0.6906498322195993 Phases=2

New Load.load_p1ulv26367 conn=wye bus1=p1ulv26367.1.2.3 kV=0.48 Vminpu=0.8 Vmaxpu=1.2 model=1 kW=54.9605 kvar=11.160205517775195 Phases=3

New Load.load_p1ulv26370 conn=wye bus1=p1ulv26370.1.2 kV=0.2080002494301389 Vminpu=0.8 Vmaxpu=1.2 model=1 kW=7.880080000000001 kvar=1.6001184904888048 Phases=2

New Load.load_p1ulv26394 conn=wye bus1=p1ulv26394.1.2 kV=0.2080002494301389 Vminpu=0.8 Vmaxpu=1.2 model=1 kW=4.26004 kvar=0.8694859858061031 Phases=2

New Load.load_p1ulv26421 conn=wye bus1=p1ulv26421.1.2 kV=0.2080002494301389 Vminpu=0.8 Vmaxpu=1.2 model=1 kW=2.79003 kvar=0.569452865461029 Phases=2

New Load.load_p1ulv26448 conn=wye bus1=p1ulv26448.1.2 kV=0.2080002494301389 Vminpu=0.8 Vmaxpu=1.2 model=1 kW=3.59004 kvar=0.7308650364566972 Phases=2

New Load.load_p1ulv26486 conn=wye bus1=p1ulv26486.1.2 kV=0.2080002494301389 Vminpu=0.8 Vmaxpu=1.2 model=1 kW=1.95002 kvar=0.40003141231071515 Phases=2

New Load.load_p1ulv26512 conn=wye bus1=p1ulv26512.1.2 kV=0.2080002494301389 Vminpu=0.8 Vmaxpu=1.2 model=1 kW=2.66003 kvar=0.5401421290462703 Phases=2

New Load.load_p1ulv26534 conn=wye bus1=p1ulv26534.1.2 kV=0.2080002494301389 Vminpu=0.8 Vmaxpu=1.2 model=1 kW=3.85004 kvar=0.7797671809452545 Phases=2

New Load.load_p1ulv26554 conn=wye bus1=p1ulv26554.1.2 kV=0.2080002494301389 Vminpu=0.8 Vmaxpu=1.2 model=1 kW=12.5501 kvar=2.5484064968228175 Phases=2

New Load.load_p1ulv26557 conn=wye bus1=p1ulv26557.1.2 kV=0.2080002494301389 Vminpu=0.8 Vmaxpu=1.2 model=1 kW=3.7500400000000003 kvar=0.7595136983594827 Phases=2

New Load.load_p1ulv26581 conn=wye bus1=p1ulv26581.1.2 kV=0.2080002494301389 Vminpu=0.8 Vmaxpu=1.2 model=1 kW=2.8000300000000005 kvar=0.5700337678771953 Phases=2

New Load.load_p1ulv26583 conn=wye bus1=p1ulv26583.1.2 kV=0.2080002494301389 Vminpu=0.8 Vmaxpu=1.2 model=1 kW=4.04004 kvar=0.8203651113078028 Phases=2

New Load.load_p1ulv26606 conn=wye bus1=p1ulv26606.1.2 kV=0.2080002494301389 Vminpu=0.8 Vmaxpu=1.2 model=1 kW=1.92002 kvar=0.38987668959050087 Phases=2

New Load.load_p1ulv26651 conn=wye bus1=p1ulv26651.1.2 kV=0.2080002494301389 Vminpu=0.8 Vmaxpu=1.2 model=1 kW=2.99003 kvar=0.6102734204701886 Phases=2

New Load.load_p1ulv26667 conn=wye bus1=p1ulv26667.1.2 kV=0.2080002494301389 Vminpu=0.8 Vmaxpu=1.2 model=1 kW=3.46003 kvar=0.7007765735124853 Phases=2

New Load.load_p1ulv26670 conn=wye bus1=p1ulv26670.1.2.3 kV=0.48 Vminpu=0.8 Vmaxpu=1.2 model=1 kW=25.9703 kvar=8.53602481672663 Phases=3

New Load.load_p1ulv26692 conn=wye bus1=p1ulv26692.1.2 kV=0.2080002494301389 Vminpu=0.8 Vmaxpu=1.2 model=1 kW=12.2001 kvar=4.0099789515926485 Phases=2

New Load.load_p1ulv26695 conn=wye bus1=p1ulv26695.1.2 kV=0.2080002494301389 Vminpu=0.8 Vmaxpu=1.2 model=1 kW=4.13004 kvar=0.840798942398307 Phases=2

New Load.load_p1ulv26713 conn=wye bus1=p1ulv26713.1.2 kV=0.2080002494301389 Vminpu=0.8 Vmaxpu=1.2 model=1 kW=3.0300300000000004 kvar=0.6200140497357622 Phases=2

New Load.load_p1ulv26714 conn=wye bus1=p1ulv26714.1.2 kV=0.2080002494301389 Vminpu=0.8 Vmaxpu=1.2 model=1 kW=3.54004 kvar=0.7206859710917335 Phases=2

New Load.load_p1ulv26755 conn=wye bus1=p1ulv26755.1.2 kV=0.2080002494301389 Vminpu=0.8 Vmaxpu=1.2 model=1 kW=4.200040000000001 kvar=0.8506543699954566 Phases=2

New Load.load_p1ulv26776 conn=wye bus1=p1ulv26776.1.2 kV=0.2080002494301389 Vminpu=0.8 Vmaxpu=1.2 model=1 kW=3.59004 kvar=0.7308650364566972 Phases=2

New Load.load_p1ulv26801 conn=wye bus1=p1ulv26801.1.2 kV=0.2080002494301389 Vminpu=0.8 Vmaxpu=1.2 model=1 kW=3.18003 kvar=0.6507075106785133 Phases=2

New Load.load_p1ulv26828 conn=wye bus1=p1ulv26828.1.2 kV=0.2080002494301389 Vminpu=0.8 Vmaxpu=1.2 model=1 kW=4.93005 kvar=1.0010893498586726 Phases=2

New Load.load_p1ulv26844 conn=wye bus1=p1ulv26844.1.2 kV=0.2080002494301389 Vminpu=0.8 Vmaxpu=1.2 model=1 kW=3.0500300000000005 kvar=0.6193350066935321 Phases=2

New Load.load_p1ulv26866 conn=wye bus1=p1ulv26866.1.2 kV=0.2080002494301389 Vminpu=0.8 Vmaxpu=1.2 model=1 kW=2.3500200000000007 kvar=0.47964560341312734 Phases=2

New Load.load_p1ulv26867 conn=wye bus1=p1ulv26867.1.2 kV=0.2080002494301389 Vminpu=0.8 Vmaxpu=1.2 model=1 kW=3.2800300000000004 kvar=0.6694632252334703 Phases=2

New Load.load_p1ulv26889 conn=wye bus1=p1ulv26889.1.2 kV=0.2080002494301389 Vminpu=0.8 Vmaxpu=1.2 model=1 kW=3.24003 kvar=0.6596095430888772 Phases=2

New Load.load_p1ulv26914 conn=wye bus1=p1ulv26914.1.2 kV=0.2080002494301389 Vminpu=0.8 Vmaxpu=1.2 model=1 kW=4.14004 kvar=1.3592956687066866 Phases=2

New Load.load_p1ulv26916 conn=wye bus1=p1ulv26916.1.2 kV=0.2080002494301389 Vminpu=0.8 Vmaxpu=1.2 model=1 kW=3.42003 kvar=0.6998170481869153 Phases=2

New Load.load_p1ulv26936 conn=wye bus1=p1ulv26936.1.2 kV=0.2080002494301389 Vminpu=0.8 Vmaxpu=1.2 model=1 kW=3.9600400000000002 kvar=0.7999668632932473 Phases=2

New Load.load_p1ulv26938 conn=wye bus1=p1ulv26938.1.2 kV=0.2080002494301389 Vminpu=0.8 Vmaxpu=1.2 model=1 kW=3.15003 kvar=0.6396408727569326 Phases=2

New Load.load_p1ulv26961 conn=wye bus1=p1ulv26961.1.2.3 kV=0.48 Vminpu=0.8 Vmaxpu=1.2 model=1 kW=133.181 kvar=27.043555481897325 Phases=3

New Load.load_p1ulv26963 conn=wye bus1=p1ulv26963.1.2 kV=0.2080002494301389 Vminpu=0.8 Vmaxpu=1.2 model=1 kW=2.97003 kvar=0.5999751474699353 Phases=2

New Load.load_p1ulv26984 conn=wye bus1=p1ulv26984.1.2 kV=0.2080002494301389 Vminpu=0.8 Vmaxpu=1.2 model=1 kW=3.51004 kvar=0.7109053401536299 Phases=2

New Load.load_p1ulv27022 conn=wye bus1=p1ulv27022.1.2 kV=0.2080002494301389 Vminpu=0.8 Vmaxpu=1.2 model=1 kW=2.19002 kvar=0.44009787633769515 Phases=2

New Load.load_p1ulv27030 conn=wye bus1=p1ulv27030.1.2 kV=0.2080002494301389 Vminpu=0.8 Vmaxpu=1.2 model=1 kW=4.200040000000001 kvar=0.8506543699954566 Phases=2

New Load.load_p1ulv27033 conn=wye bus1=p1ulv27033.1.2 kV=0.2080002494301389 Vminpu=0.8 Vmaxpu=1.2 model=1 kW=4.71005 kvar=0.9588781364449609 Phases=2

New Load.load_p1ulv27054 conn=wye bus1=p1ulv27054.1.2 kV=0.2080002494301389 Vminpu=0.8 Vmaxpu=1.2 model=1 kW=3.04003 kvar=0.6204785592224786 Phases=2

New Load.load_p1ulv27058 conn=wye bus1=p1ulv27058.1.2 kV=0.2080002494301389 Vminpu=0.8 Vmaxpu=1.2 model=1 kW=4.47004 kvar=0.9100165868800613 Phases=2

New Load.load_p1ulv27078 conn=wye bus1=p1ulv27078.1.2 kV=0.2080002494301389 Vminpu=0.8 Vmaxpu=1.2 model=1 kW=3.91004 kvar=0.7898663736101474 Phases=2

New Load.load_p1ulv27080 conn=wye bus1=p1ulv27080.1.2 kV=0.2080002494301389 Vminpu=0.8 Vmaxpu=1.2 model=1 kW=3.0300300000000004 kvar=0.6200140497357622 Phases=2

New Load.load_p1ulv27103 conn=wye bus1=p1ulv27103.1.2 kV=0.2080002494301389 Vminpu=0.8 Vmaxpu=1.2 model=1 kW=7.89008 kvar=1.5980159788034758 Phases=2

New Load.load_p1ulv27127 conn=wye bus1=p1ulv27127.1.2 kV=0.2080002494301389 Vminpu=0.8 Vmaxpu=1.2 model=1 kW=3.25003 kvar=0.659946738820333 Phases=2

New Load.load_p1ulv27129 conn=wye bus1=p1ulv27129.1.2 kV=0.2080002494301389 Vminpu=0.8 Vmaxpu=1.2 model=1 kW=3.57004 kvar=0.7305125553603958 Phases=2

New Load.load_p1ulv27152 conn=wye bus1=p1ulv27152.1.2 kV=0.2080002494301389 Vminpu=0.8 Vmaxpu=1.2 model=1 kW=5.23005 kvar=1.059267265977166 Phases=2

New Load.load_p1ulv27154 conn=wye bus1=p1ulv27154.1.2 kV=0.2080002494301389 Vminpu=0.8 Vmaxpu=1.2 model=1 kW=3.13003 kvar=0.6404763570309296 Phases=2

New Load.load_p1ulv27179 conn=wye bus1=p1ulv27179.1.2 kV=0.2080002494301389 Vminpu=0.8 Vmaxpu=1.2 model=1 kW=3.51004 kvar=0.7109053401536299 Phases=2

New Load.load_p1ulv27220 conn=wye bus1=p1ulv27220.1.2 kV=0.2080002494301389 Vminpu=0.8 Vmaxpu=1.2 model=1 kW=3.22003 kvar=0.6504775958854341 Phases=2

New Load.load_p1ulv27237 conn=wye bus1=p1ulv27237.1.2 kV=0.2080002494301389 Vminpu=0.8 Vmaxpu=1.2 model=1 kW=2.95003 kvar=0.6005709639720869 Phases=2

New Load.load_p1ulv27281 conn=wye bus1=p1ulv27281.1.2 kV=0.2080002494301389 Vminpu=0.8 Vmaxpu=1.2 model=1 kW=3.78004 kvar=0.7695454848435601 Phases=2

New Load.load_p1ulv27300 conn=wye bus1=p1ulv27300.1.2 kV=0.2080002494301389 Vminpu=0.8 Vmaxpu=1.2 model=1 kW=13.3701 kvar=4.39928198667922 Phases=2

New Load.load_p1ulv27302 conn=wye bus1=p1ulv27302.1.2 kV=0.2080002494301389 Vminpu=0.8 Vmaxpu=1.2 model=1 kW=3.59004 kvar=0.7308650364566972 Phases=2

New Load.load_p1ulv27322 conn=wye bus1=p1ulv27322.1.2 kV=0.2080002494301389 Vminpu=0.8 Vmaxpu=1.2 model=1 kW=4.51005 kvar=0.9205137205953031 Phases=2

New Load.load_p1ulv27323 conn=wye bus1=p1ulv27323.1.2 kV=0.2080002494301389 Vminpu=0.8 Vmaxpu=1.2 model=1 kW=5.03005 kvar=1.0187603008056223 Phases=2

New Load.load_p1ulv27345 conn=wye bus1=p1ulv27345.1.2 kV=0.2080002494301389 Vminpu=0.8 Vmaxpu=1.2 model=1 kW=2.77003 kvar=0.5595731887375364 Phases=2

New Load.load_p1ulv27366 conn=wye bus1=p1ulv27366.1.2 kV=0.2080002494301389 Vminpu=0.8 Vmaxpu=1.2 model=1 kW=4.21004 kvar=0.8592808470538134 Phases=2

New Load.load_p1ulv27408 conn=wye bus1=p1ulv27408.1.2 kV=0.2080002494301389 Vminpu=0.8 Vmaxpu=1.2 model=1 kW=2.7600300000000004 kvar=0.5604479951096709 Phases=2

New Load.load_p1ulv27429 conn=wye bus1=p1ulv27429.1.2 kV=0.2080002494301389 Vminpu=0.8 Vmaxpu=1.2 model=1 kW=17.5602 kvar=5.771758623761872 Phases=2

New Load.load_p1ulv27662 conn=wye bus1=p1ulv27662.1.2 kV=0.2080002494301389 Vminpu=0.8 Vmaxpu=1.2 model=1 kW=1.38001 kvar=0.28022298226153225 Phases=2

New Load.load_p1ulv27682 conn=wye bus1=p1ulv27682.1.2 kV=0.2080002494301389 Vminpu=0.8 Vmaxpu=1.2 model=1 kW=3.41003 kvar=0.6906498322195993 Phases=2

New Load.load_p1ulv27684 conn=wye bus1=p1ulv27684.1.2 kV=0.2080002494301389 Vminpu=0.8 Vmaxpu=1.2 model=1 kW=4.200040000000001 kvar=0.8506543699954566 Phases=2

New Load.load_p1ulv27724 conn=wye bus1=p1ulv27724.1.2 kV=0.2080002494301389 Vminpu=0.8 Vmaxpu=1.2 model=1 kW=3.55004 kvar=0.7208663675971405 Phases=2

New Load.load_p1ulv27726 conn=wye bus1=p1ulv27726.1.2 kV=0.2080002494301389 Vminpu=0.8 Vmaxpu=1.2 model=1 kW=3.6900400000000007 kvar=0.7492945800859013 Phases=2

New Load.load_p1ulv27748 conn=wye bus1=p1ulv27748.1.2 kV=0.2080002494301389 Vminpu=0.8 Vmaxpu=1.2 model=1 kW=2.97003 kvar=0.5999751474699353 Phases=2

New Load.load_p1ulv27767 conn=wye bus1=p1ulv27767.1.2 kV=0.2080002494301389 Vminpu=0.8 Vmaxpu=1.2 model=1 kW=9.590100000000001 kvar=1.952365095130799 Phases=2

New Load.load_p1ulv27814 conn=wye bus1=p1ulv27814.1.2.3 kV=0.48 Vminpu=0.8 Vmaxpu=1.2 model=1 kW=36.970400000000005 kvar=12.151582842104643 Phases=3

New Load.load_p1ulv27817 conn=wye bus1=p1ulv27817.1.2.3 kV=0.48 Vminpu=0.8 Vmaxpu=1.2 model=1 kW=20.0002 kvar=4.061213824412213 Phases=3

New Load.load_p1ulv27837 conn=wye bus1=p1ulv27837.1.2 kV=0.2080002494301389 Vminpu=0.8 Vmaxpu=1.2 model=1 kW=1.38001 kvar=0.28022298226153225 Phases=2

New Load.load_p1ulv27865 conn=wye bus1=p1ulv27865.1.2 kV=0.2080002494301389 Vminpu=0.8 Vmaxpu=1.2 model=1 kW=4.14004 kvar=1.3592956687066866 Phases=2

New Load.load_p1ulv27890 conn=wye bus1=p1ulv27890.1.2 kV=0.2080002494301389 Vminpu=0.8 Vmaxpu=1.2 model=1 kW=3.12003 kvar=0.6302766165192346 Phases=2

New Load.load_p1ulv27931 conn=wye bus1=p1ulv27931.1.2 kV=0.2080002494301389 Vminpu=0.8 Vmaxpu=1.2 model=1 kW=9.7501 kvar=1.9798422470476054 Phases=2

New Load.load_p1ulv27953 conn=wye bus1=p1ulv27953.1.2 kV=0.2080002494301389 Vminpu=0.8 Vmaxpu=1.2 model=1 kW=5.68006 kvar=1.1504099629613984 Phases=2

New Load.load_p1ulv27974 conn=wye bus1=p1ulv27974.1.2 kV=0.2080002494301389 Vminpu=0.8 Vmaxpu=1.2 model=1 kW=13.4901 kvar=4.42919259244357 Phases=2

New Load.load_p1ulv27976 conn=wye bus1=p1ulv27976.1.2 kV=0.2080002494301389 Vminpu=0.8 Vmaxpu=1.2 model=1 kW=2.73003 kvar=0.5500561486197115 Phases=2

New Load.load_p1ulv27998 conn=wye bus1=p1ulv27998.1.2 kV=0.2080002494301389 Vminpu=0.8 Vmaxpu=1.2 model=1 kW=2.83003 kvar=0.580558608517704 Phases=2

New Load.load_p1ulv28001 conn=wye bus1=p1ulv28001.1.2 kV=0.2080002494301389 Vminpu=0.8 Vmaxpu=1.2 model=1 kW=1.38001 kvar=0.28022298226153225 Phases=2

New Load.load_p1ulv28027 conn=wye bus1=p1ulv28027.1.2 kV=0.2080002494301389 Vminpu=0.8 Vmaxpu=1.2 model=1 kW=3.7100400000000002 kvar=0.7494644148777485 Phases=2

New Load.load_p1ulv28049 conn=wye bus1=p1ulv28049.1.2 kV=0.2080002494301389 Vminpu=0.8 Vmaxpu=1.2 model=1 kW=3.2800300000000004 kvar=0.6694632252334703 Phases=2

New Load.load_p1ulv28060 conn=wye bus1=p1ulv28060.1.2.3 kV=0.48 Vminpu=0.8 Vmaxpu=1.2 model=1 kW=41.8004 kvar=8.487933237965633 Phases=3

New Load.load_p1ulv28080 conn=wye bus1=p1ulv28080.1.2 kV=0.2080002494301389 Vminpu=0.8 Vmaxpu=1.2 model=1 kW=3.3000300000000005 kvar=0.6700996718520332 Phases=2

New Load.load_p1ulv28097 conn=wye bus1=p1ulv28097.1.2.3 kV=0.48 Vminpu=0.8 Vmaxpu=1.2 model=1 kW=23.6502 kvar=4.802377935726328 Phases=3

New Load.load_p1ulv28099 conn=wye bus1=p1ulv28099.1.2 kV=0.2080002494301389 Vminpu=0.8 Vmaxpu=1.2 model=1 kW=4.18004 kvar=0.8509780077632708 Phases=2

New Load.load_p1ulv28120 conn=wye bus1=p1ulv28120.1.2 kV=0.2080002494301389 Vminpu=0.8 Vmaxpu=1.2 model=1 kW=13.3601 kvar=4.391252513600129 Phases=2

New Load.load_p1ulv28123 conn=wye bus1=p1ulv28123.1.2 kV=0.2080002494301389 Vminpu=0.8 Vmaxpu=1.2 model=1 kW=3.22003 kvar=0.6504775958854341 Phases=2

New Load.load_p1ulv28148 conn=wye bus1=p1ulv28148.1.2 kV=0.2080002494301389 Vminpu=0.8 Vmaxpu=1.2 model=1 kW=3.17003 kvar=0.6403771062023346 Phases=2

New Load.load_p1ulv28172 conn=wye bus1=p1ulv28172.1.2 kV=0.2080002494301389 Vminpu=0.8 Vmaxpu=1.2 model=1 kW=2.7800300000000004 kvar=0.5601303263507202 Phases=2

New Load.load_p1ulv28193 conn=wye bus1=p1ulv28193.1.2.3 kV=0.48 Vminpu=0.8 Vmaxpu=1.2 model=1 kW=32.6403 kvar=6.627895600692091 Phases=3

New Load.load_p1ulv28212 conn=wye bus1=p1ulv28212.1.2 kV=0.2080002494301389 Vminpu=0.8 Vmaxpu=1.2 model=1 kW=3.0100300000000004 kvar=0.6096359018765115 Phases=2

New Load.load_p1ulv28237 conn=wye bus1=p1ulv28237.1.2 kV=0.2080002494301389 Vminpu=0.8 Vmaxpu=1.2 model=1 kW=2.93003 kvar=0.5903528595437461 Phases=2

New Load.load_p1ulv28330 conn=wye bus1=p1ulv28330.1.2 kV=0.2080002494301389 Vminpu=0.8 Vmaxpu=1.2 model=1 kW=3.36003 kvar=0.6805230909267135 Phases=2

New Load.load_p1ulv28352 conn=wye bus1=p1ulv28352.1.2 kV=0.2080002494301389 Vminpu=0.8 Vmaxpu=1.2 model=1 kW=3.33003 kvar=0.6796683639857601 Phases=2

New Load.load_p1ulv28355 conn=wye bus1=p1ulv28355.1.2 kV=0.2080002494301389 Vminpu=0.8 Vmaxpu=1.2 model=1 kW=3.22003 kvar=0.6504775958854341 Phases=2

New Load.load_p1ulv28373 conn=wye bus1=p1ulv28373.1.2 kV=0.2080002494301389 Vminpu=0.8 Vmaxpu=1.2 model=1 kW=4.72005 kvar=0.9609139495179535 Phases=2

New Load.load_p1ulv28399 conn=wye bus1=p1ulv28399.1.2 kV=0.2080002494301389 Vminpu=0.8 Vmaxpu=1.2 model=1 kW=3.33003 kvar=0.6796683639857601 Phases=2

New Load.load_p1ulv28419 conn=wye bus1=p1ulv28419.1.2 kV=0.2080002494301389 Vminpu=0.8 Vmaxpu=1.2 model=1 kW=3.15003 kvar=0.6396408727569326 Phases=2

New Load.load_p1ulv28442 conn=wye bus1=p1ulv28442.1.2 kV=0.2080002494301389 Vminpu=0.8 Vmaxpu=1.2 model=1 kW=3.37003 kvar=0.6807790649347335 Phases=2

New Load.load_p1ulv28464 conn=wye bus1=p1ulv28464.1.2 kV=0.2080002494301389 Vminpu=0.8 Vmaxpu=1.2 model=1 kW=2.26002 kvar=0.4600978261225126 Phases=2

New Load.load_p1ulv28481 conn=wye bus1=p1ulv28481.1.2 kV=0.2080002494301389 Vminpu=0.8 Vmaxpu=1.2 model=1 kW=3.39003 kvar=0.6901467391837689 Phases=2

New Load.load_p1ulv28483 conn=wye bus1=p1ulv28483.1.2 kV=0.2080002494301389 Vminpu=0.8 Vmaxpu=1.2 model=1 kW=2.1000200000000007 kvar=0.4297125456599755 Phases=2

New Load.load_p1ulv28506 conn=wye bus1=p1ulv28506.1.2 kV=0.2080002494301389 Vminpu=0.8 Vmaxpu=1.2 model=1 kW=4.630050000000001 kvar=0.9401717516684716 Phases=2

New Load.load_p1ulv28549 conn=wye bus1=p1ulv28549.1.2.3 kV=0.48 Vminpu=0.8 Vmaxpu=1.2 model=1 kW=23.1702 kvar=7.6074512572505775 Phases=3

New Load.load_p1ulv28572 conn=wye bus1=p1ulv28572.1.2 kV=0.2080002494301389 Vminpu=0.8 Vmaxpu=1.2 model=1 kW=3.83004 kvar=0.7797245502085238 Phases=2

New Load.load_p1ulv28591 conn=wye bus1=p1ulv28591.1.2 kV=0.2080002494301389 Vminpu=0.8 Vmaxpu=1.2 model=1 kW=2.7800300000000004 kvar=0.5601303263507202 Phases=2

New Load.load_p1ulv28617 conn=wye bus1=p1ulv28617.1.2 kV=0.2080002494301389 Vminpu=0.8 Vmaxpu=1.2 model=1 kW=3.02003 kvar=0.6100756371530351 Phases=2

New Load.load_p1ulv28710 conn=wye bus1=p1ulv28710.1.2 kV=0.2080002494301389 Vminpu=0.8 Vmaxpu=1.2 model=1 kW=3.21003 kvar=0.6501428670480555 Phases=2

New Load.load_p1ulv28751 conn=wye bus1=p1ulv28751.1.2 kV=0.2080002494301389 Vminpu=0.8 Vmaxpu=1.2 model=1 kW=10.6401 kvar=2.160564455011869 Phases=2

New Load.load_p1ulv28754 conn=wye bus1=p1ulv28754.1.2 kV=0.2080002494301389 Vminpu=0.8 Vmaxpu=1.2 model=1 kW=2.96003 kvar=0.5995091605836256 Phases=2

New Load.load_p1ulv28777 conn=wye bus1=p1ulv28777.1.2 kV=0.2080002494301389 Vminpu=0.8 Vmaxpu=1.2 model=1 kW=2.19002 kvar=0.450399940242794 Phases=2

New Load.load_p1ulv28815 conn=wye bus1=p1ulv28815.1.2 kV=0.2080002494301389 Vminpu=0.8 Vmaxpu=1.2 model=1 kW=1.66002 kvar=0.33967839356123863 Phases=2

New Load.load_p1ulv28876 conn=wye bus1=p1ulv28876.1.2 kV=0.2080002494301389 Vminpu=0.8 Vmaxpu=1.2 model=1 kW=13.8701 kvar=4.5588814072413495 Phases=2

New Load.load_p1ulv28887 conn=wye bus1=p1ulv28887.1.2.3 kV=0.48 Vminpu=0.8 Vmaxpu=1.2 model=1 kW=163.742 kvar=53.819392750197395 Phases=3

New Load.load_p1ulv28900 conn=wye bus1=p1ulv28900.1.2 kV=0.2080002494301389 Vminpu=0.8 Vmaxpu=1.2 model=1 kW=3.17003 kvar=0.6403771062023346 Phases=2

New Load.load_p1ulv28902 conn=wye bus1=p1ulv28902.1.2 kV=0.2080002494301389 Vminpu=0.8 Vmaxpu=1.2 model=1 kW=4.70005 kvar=0.9494561307010603 Phases=2

New Load.load_p1ulv28923 conn=wye bus1=p1ulv28923.1.2 kV=0.2080002494301389 Vminpu=0.8 Vmaxpu=1.2 model=1 kW=3.77004 kvar=0.7694756260336619 Phases=2

New Load.load_p1ulv28943 conn=wye bus1=p1ulv28943.1.2 kV=0.2080002494301389 Vminpu=0.8 Vmaxpu=1.2 model=1 kW=2.46002 kvar=0.49952836633286324 Phases=2

New Load.load_p1ulv28965 conn=wye bus1=p1ulv28965.1.2 kV=0.2080002494301389 Vminpu=0.8 Vmaxpu=1.2 model=1 kW=3.33003 kvar=0.6796683639857601 Phases=2

New Load.load_p1ulv28989 conn=wye bus1=p1ulv28989.1.2 kV=0.2080002494301389 Vminpu=0.8 Vmaxpu=1.2 model=1 kW=3.51004 kvar=0.7109053401536299 Phases=2

New Load.load_p1ulv29032 conn=wye bus1=p1ulv8393.1.2 kV=0.2080002494301389 Vminpu=0.8 Vmaxpu=1.2 model=1 kW=10.15 kvar=0.5394965717823037 Phases=2

New Load.load_p1ulv29049 conn=wye bus1=p1ulv29049.1.2 kV=0.2080002494301389 Vminpu=0.8 Vmaxpu=1.2 model=1 kW=3.13003 kvar=0.6404763570309296 Phases=2

New Load.load_p1ulv29052 conn=wye bus1=p1ulv29052.1.2 kV=0.2080002494301389 Vminpu=0.8 Vmaxpu=1.2 model=1 kW=2.8200300000000005 kvar=0.5696736784206362 Phases=2

New Load.load_p1ulv29308 conn=wye bus1=p1ulv29308.1.2 kV=0.2080002494301389 Vminpu=0.8 Vmaxpu=1.2 model=1 kW=3.29003 kvar=0.6697886084538411 Phases=2

New Load.load_p1ulv29332 conn=wye bus1=p1ulv29332.1.2 kV=0.2080002494301389 Vminpu=0.8 Vmaxpu=1.2 model=1 kW=17.9102 kvar=3.636821223687144 Phases=2

New Load.load_p1ulv29396 conn=wye bus1=p1ulv29396.1.2 kV=0.2080002494301389 Vminpu=0.8 Vmaxpu=1.2 model=1 kW=7.30007 kvar=1.4785184061991627 Phases=2

New Load.load_p1ulv29417 conn=wye bus1=p1ulv29417.1.2 kV=0.2080002494301389 Vminpu=0.8 Vmaxpu=1.2 model=1 kW=3.16003 kvar=0.6400161257551694 Phases=2

New Load.load_p1ulv29440 conn=wye bus1=p1ulv29440.1.2 kV=0.2080002494301389 Vminpu=0.8 Vmaxpu=1.2 model=1 kW=3.14003 kvar=0.6392514123589496 Phases=2

New Load.load_p1ulv29461 conn=wye bus1=p1ulv29461.1.2 kV=0.2080002494301389 Vminpu=0.8 Vmaxpu=1.2 model=1 kW=2.8200300000000005 kvar=0.5696736784206362 Phases=2

New Load.load_p1ulv29480 conn=wye bus1=p1ulv29480.1.2 kV=0.2080002494301389 Vminpu=0.8 Vmaxpu=1.2 model=1 kW=3.0500300000000005 kvar=0.6193350066935321 Phases=2

New Load.load_p1ulv29503 conn=wye bus1=p1ulv29503.1.2 kV=0.2080002494301389 Vminpu=0.8 Vmaxpu=1.2 model=1 kW=3.3200300000000005 kvar=0.6706785752516337 Phases=2

New Load.load_p1ulv29525 conn=wye bus1=p1ulv29525.1.2 kV=0.2080002494301389 Vminpu=0.8 Vmaxpu=1.2 model=1 kW=2.3700200000000002 kvar=0.4800115879793125 Phases=2

New Load.load_p1ulv29548 conn=wye bus1=p1ulv29548.1.2 kV=0.2080002494301389 Vminpu=0.8 Vmaxpu=1.2 model=1 kW=4.76005 kvar=0.9690572018099246 Phases=2

New Load.load_p1ulv29551 conn=wye bus1=p1ulv29551.1.2 kV=0.2080002494301389 Vminpu=0.8 Vmaxpu=1.2 model=1 kW=6.86007 kvar=1.3894030828217663 Phases=2

...